output/Undir/csv/Voltages.csv
Bus, BasekV, Node1, Magnitude1, Angle1, pu1, Node2, Magnitude2, Angle2, pu2, Node3, Magnitude3, Angle3, pu3
"MADKAI_SS", 11, 1,    6348.22,    0.0,   0.99959, 2,    6348.22, -120.0,   0.99959, 3,    6348.22,  120.0,   0.99959
"3_WAY_KHARWADA", 11, 1,    6338.82,    0.0,   0.99811, 2,    6338.82, -120.0,   0.99811, 3,    6338.82,  120.0,   0.99811
"KONAR_GAUNEM_DTC", 11, 1,    6343.11,    0.0,   0.99878, 2,    6343.11, -120.0,   0.99878, 3,    6343.11,  120.0,   0.99878
"RAM_MANDIR", 11, 1,    6337.82,    0.0,   0.99795, 2,    6337.82, -120.0,   0.99795, 3,    6337.82,  120.0,   0.99795
"DEMPO_HTC", 11, 1,    6336.25,    0.0,    0.9977, 2,    6336.25, -120.0,    0.9977, 3,    6336.25,  120.0,    0.9977
"RB_ENGG", 11, 1,    6335.64,    0.0,    0.9976, 2,    6335.64, -120.0,    0.9976, 3,    6335.64,  120.0,    0.9976
"UNDIR_BAKALE", 11, 1,    6335.03,    0.0,   0.99751, 2,    6335.03, -120.0,   0.99751, 3,    6335.03,  120.0,   0.99751
"MULEBHAT", 11, 1,    6333.89,    0.0,   0.99733, 2,    6333.89, -120.0,   0.99733, 3,    6333.89,  120.0,   0.99733
"MARUTI_TEMPLE", 11, 1,    6332.38,    0.0,   0.99709, 2,    6332.38, -120.0,   0.99709, 3,    6332.38,  120.0,   0.99709
"CHIKALI", 11, 1,    6331.23,    0.0,   0.99691, 2,    6331.23, -120.0,   0.99691, 3,    6331.23,  120.0,   0.99691
"ADPAI", 11, 1,     6330.2,    0.0,   0.99675, 2,     6330.2, -120.0,   0.99675, 3,     6330.2,  120.0,   0.99675
"DURBHAT", 11, 1,    6329.16,   -0.1,   0.99658, 2,    6329.16, -120.1,   0.99658, 3,    6329.16,  119.9,   0.99658
"SEWERAGE", 11, 1,    6329.15,   -0.1,   0.99658, 2,    6329.15, -120.1,   0.99658, 3,    6329.15,  119.9,   0.99658
"KASWADA", 11, 1,    6328.69,   -0.1,   0.99651, 2,    6328.69, -120.1,   0.99651, 3,    6328.69,  119.9,   0.99651
"LONDIYAR_WADEM", 11, 1,    6328.32,   -0.1,   0.99645, 2,    6328.32, -120.1,   0.99645, 3,    6328.32,  119.9,   0.99645
"3_WAY_TALAULIM", 11, 1,    6328.31,   -0.1,   0.99645, 2,    6328.31, -120.1,   0.99645, 3,    6328.31,  119.9,   0.99645
"NEW_TALAULIM", 11, 1,    6328.24,   -0.1,   0.99644, 2,    6328.24, -120.1,   0.99644, 3,    6328.24,  119.9,   0.99644
"WADI", 11, 1,    6328.14,   -0.1,   0.99642, 2,    6328.14, -120.1,   0.99642, 3,    6328.14,  119.9,   0.99642
"TALAULIM", 11, 1,    6328.17,   -0.1,   0.99643, 2,    6328.17, -120.1,   0.99643, 3,    6328.17,  119.9,   0.99643
"MAHALAKSHMI_NAGAR", 11, 1,    6328.02,   -0.1,    0.9964, 2,    6328.02, -120.1,    0.9964, 3,    6328.02,  119.9,    0.9964
"PAUNWADA", 11, 1,    6328.03,   -0.1,   0.99641, 2,    6328.03, -120.1,   0.99641, 3,    6328.03,  119.9,   0.99641
"3_WAY_DON_KHAMB", 11, 1,    6328.07,   -0.1,   0.99641, 2,    6328.07, -120.1,   0.99641, 3,    6328.07,  119.9,   0.99641
"KAVLE_MATH", 11, 1,    6328.34,   -0.1,   0.99646, 2,    6328.34, -120.1,   0.99646, 3,    6328.34,  119.9,   0.99646
"SHANTADURGA_OLD", 11, 1,     6328.6,   -0.1,    0.9965, 2,     6328.6, -120.1,    0.9965, 3,     6328.6,  119.9,    0.9965
"3_WAY_SHANTADURGA", 11, 1,    6328.61,   -0.1,    0.9965, 2,    6328.61, -120.1,    0.9965, 3,    6328.61,  119.9,    0.9965
"SANATAN_1", 11, 1,    6329.79,    0.0,   0.99668, 2,    6329.79, -120.0,   0.99668, 3,    6329.79,  120.0,   0.99668
"SANATAN_2", 11, 1,    6329.84,    0.0,   0.99669, 2,    6329.84, -120.0,   0.99669, 3,    6329.84,  120.0,   0.99669
"RAMNATHI_DEVASTHAN", 11, 1,    6330.06,    0.0,   0.99673, 2,    6330.06, -120.0,   0.99673, 3,    6330.06,  120.0,   0.99673
"RAMNATHI", 11, 1,    6330.38,    0.0,   0.99678, 2,    6330.38, -120.0,   0.99678, 3,    6330.38,  120.0,   0.99678
"3_WAY_RAMNATHI", 11, 1,    6331.39,    0.0,   0.99694, 2,    6331.39, -120.0,   0.99694, 3,    6331.39,  120.0,   0.99694
"RPRS_SCHOOL", 11, 1,    6332.32,    0.0,   0.99708, 2,    6332.32, -120.0,   0.99708, 3,    6332.32,  120.0,   0.99708
"TOLULEM", 11, 1,    6334.29,    0.0,   0.99739, 2,    6334.29, -120.0,   0.99739, 3,    6334.29,  120.0,   0.99739
"KHARWADA", 11, 1,    6338.23,    0.0,   0.99801, 2,    6338.23, -120.0,   0.99801, 3,    6338.23,  120.0,   0.99801
"SHANTADURGA_NEW", 11, 1,    6328.59,   -0.1,   0.99649, 2,    6328.59, -120.1,   0.99649, 3,    6328.59,  119.9,   0.99649
"GALSHIRE", 11, 1,     6328.4,   -0.1,   0.99646, 2,     6328.4, -120.1,   0.99646, 3,     6328.4,  119.9,   0.99646
"3_WAY_GALSHIRE", 11, 1,    6327.83,   -0.1,   0.99638, 2,    6327.83, -120.1,   0.99638, 3,    6327.83,  119.9,   0.99638
"3_WAY_HARISH_BAR", 11, 1,    6327.67,   -0.1,   0.99635, 2,    6327.67, -120.1,   0.99635, 3,    6327.67,  119.9,   0.99635
"SNEH_MANDIR", 11, 1,    6327.54,   -0.1,   0.99633, 2,    6327.54, -120.1,   0.99633, 3,    6327.54,  119.9,   0.99633
"RAJENDRA_TALAK", 11, 1,    6327.45,   -0.1,   0.99632, 2,    6327.45, -120.1,   0.99632, 3,    6327.45,  119.9,   0.99632
"RITESH_DEVELOPERS", 11, 1,     6327.4,   -0.1,   0.99631, 2,     6327.4, -120.1,   0.99631, 3,     6327.4,  119.9,   0.99631
"VENKATESH_LEELA", 11, 1,    6327.34,   -0.1,    0.9963, 2,    6327.34, -120.1,    0.9963, 3,    6327.34,  119.9,    0.9963
"PERIGOL", 11, 1,    6327.29,   -0.1,   0.99629, 2,    6327.29, -120.1,   0.99629, 3,    6327.29,  119.9,   0.99629
"MANMOHAN_SINGH", 11, 1,    6327.27,   -0.1,   0.99629, 2,    6327.27, -120.1,   0.99629, 3,    6327.27,  119.9,   0.99629
"DHUMRE", 11, 1,     6327.3,   -0.1,   0.99629, 2,     6327.3, -120.1,   0.99629, 3,     6327.3,  119.9,   0.99629
"3_WAY_ROYAL_ENFIELD", 11, 1,    6327.41,   -0.1,   0.99631, 2,    6327.41, -120.1,   0.99631, 3,    6327.41,  119.9,   0.99631
"SHASHIKALA_PAI", 11, 1,    6327.59,   -0.1,   0.99634, 2,    6327.59, -120.1,   0.99634, 3,    6327.59,  119.9,   0.99634
"KAPILESHWARI", 11, 1,    6327.85,   -0.1,   0.99638, 2,    6327.85, -120.1,   0.99638, 3,    6327.85,  119.9,   0.99638
"3_WAY_RATHAMAL", 11, 1,    6327.81,   -0.1,   0.99637, 2,    6327.81, -120.1,   0.99637, 3,    6327.81,  119.9,   0.99637
"MATRUCHAYA", 11, 1,     6327.7,   -0.1,   0.99635, 2,     6327.7, -120.1,   0.99635, 3,     6327.7,  119.9,   0.99635
"SHANTINAGAR_INTERLINK", 11, 1,    6327.68,   -0.1,   0.99635, 2,    6327.68, -120.1,   0.99635, 3,    6327.68,  119.9,   0.99635
"3_WAY_SHANTINAGAR", 11, 1,          0,    0.0,         0, 2,          0,    0.0,         0, 3,          0,    0.0,         0
"VAMNESHWAR", 11, 1,          0,    0.0,         0, 2,          0,    0.0,         0, 3,          0,    0.0,         0
"GOLDEN_PROPERTIES", 11, 1,          0,    0.0,         0, 2,          0,    0.0,         0, 3,          0,    0.0,         0
"RITESH", 11, 1,          0,    0.0,         0, 2,          0,    0.0,         0, 3,          0,    0.0,         0
"MG_SCHOOL_DTC", 11, 1,    6342.33,    0.0,   0.99866, 2,    6342.33, -120.0,   0.99866, 3,    6342.33,  120.0,   0.99866
"CHAFERAN_DTC", 11, 1,    6341.77,    0.0,   0.99857, 2,    6341.77, -120.0,   0.99857, 3,    6341.77,  120.0,   0.99857
"SHIGUMOMAND_DTC", 11, 1,    6341.44,    0.0,   0.99852, 2,    6341.44, -120.0,   0.99852, 3,    6341.44,  120.0,   0.99852
"MOGRU_DTC", 11, 1,    6339.15,    0.0,   0.99816, 2,    6339.15, -120.0,   0.99816, 3,    6339.15,  120.0,   0.99816
"SHAMRAO_BUILDERS_DTC", 11, 1,     6336.2,    0.0,   0.99769, 2,     6336.2, -120.0,   0.99769, 3,     6336.2,  120.0,   0.99769
"KUNAL_DTC", 11, 1,     6335.4,    0.0,   0.99757, 2,     6335.4, -120.0,   0.99757, 3,     6335.4,  120.0,   0.99757
"PEARL_DTC", 11, 1,    6335.11,    0.0,   0.99752, 2,    6335.11, -120.0,   0.99752, 3,    6335.11,  120.0,   0.99752
"MAHALAXMI_BANDORA_DTC", 11, 1,    6334.12,    0.0,   0.99736, 2,    6334.12, -120.0,   0.99736, 3,    6334.12,  120.0,   0.99736
"AGRA_SHALA_DTC", 11, 1,    6333.91,    0.0,   0.99733, 2,    6333.91, -120.0,   0.99733, 3,    6333.91,  120.0,   0.99733
"TILVE_RMU", 11, 1,    6333.01,    0.0,   0.99719, 2,    6333.01, -120.0,   0.99719, 3,    6333.01,  120.0,   0.99719
"HINDU_JAN_JAGRUTI_DTC", 11, 1,    6332.91,    0.0,   0.99717, 2,    6332.91, -120.0,   0.99717, 3,    6332.91,  120.0,   0.99717
"VAGDOR_DTC", 11, 1,    6332.85,    0.0,   0.99717, 2,    6332.85, -120.0,   0.99717, 3,    6332.85,  120.0,   0.99717
"NAGESHI_TEMPLE_DTC", 11, 1,    6332.24,    0.0,   0.99707, 2,    6332.24, -120.0,   0.99707, 3,    6332.24,  120.0,   0.99707
"DHONSHI_DTC", 11, 1,    6332.13,    0.0,   0.99705, 2,    6332.13, -120.0,   0.99705, 3,    6332.13,  120.0,   0.99705
"BANDORA_PANCHAYAT_RMU", 11, 1,    6331.93,    0.0,   0.99702, 2,    6331.93, -120.0,   0.99702, 3,    6331.93,  120.0,   0.99702
"KASHIMATHGROUND_DTC", 11, 1,    6331.68,    0.0,   0.99698, 2,    6331.68, -120.0,   0.99698, 3,    6331.68,  120.0,   0.99698
"RAINGUINIM", 11, 1,    6331.81,    0.0,     0.997, 2,    6331.81, -120.0,     0.997, 3,    6331.81,  120.0,     0.997
"3_WAY_SNEH_MANDIR", 11, 1,    6327.67,   -0.1,   0.99635, 2,    6327.67, -120.1,   0.99635, 3,    6327.67,  119.9,   0.99635
"3_WAY_KHARWADABUS1", 0.415, 1,    239.146,  -30.0,   0.99811, 2,    239.146, -150.0,   0.99811, 3,    239.146,   90.0,   0.99811
"RAM_MANDIRBUS1", 0.415, 1,    237.457,  -30.3,   0.99105, 2,    237.457, -150.3,   0.99105, 3,    237.457,   89.7,   0.99105
"DEMPO_HTCBUS1", 0.415, 1,    238.428,  -30.1,   0.99511, 2,    238.428, -150.1,   0.99511, 3,    238.428,   89.9,   0.99511
"RB_ENGGBUS1", 0.415, 1,    238.488,  -30.1,   0.99536, 2,    238.488, -150.1,   0.99536, 3,    238.488,   89.9,   0.99536
"UNDIR_BAKALEBUS1", 0.415, 1,    237.739,  -30.2,   0.99223, 2,    237.739, -150.2,   0.99223, 3,    237.739,   89.8,   0.99223
"MULEBHATBUS1", 0.415, 1,    236.261,  -30.5,   0.98606, 2,    236.261, -150.5,   0.98606, 3,    236.261,   89.5,   0.98606
"MARUTI_TEMPLEBUS1", 0.415, 1,    237.219,  -30.3,   0.99006, 2,    237.219, -150.3,   0.99006, 3,    237.219,   89.7,   0.99006
"CHIKALIBUS1", 0.415, 1,     236.46,  -30.4,   0.98689, 2,     236.46, -150.4,   0.98689, 3,     236.46,   89.6,   0.98689
"ADPAIBUS1", 0.415, 1,    236.774,  -30.4,    0.9882, 2,    236.774, -150.4,    0.9882, 3,    236.774,   89.6,    0.9882
"DURBHATBUS1", 0.415, 1,    237.288,  -30.3,   0.99035, 2,    237.288, -150.3,   0.99035, 3,    237.288,   89.7,   0.99035
"SEWERAGEBUS1", 0.415, 1,    238.067,  -30.2,    0.9936, 2,    238.067, -150.2,    0.9936, 3,    238.067,   89.8,    0.9936
"KASWADABUS1", 0.415, 1,    236.652,  -30.4,    0.9877, 2,    236.652, -150.4,    0.9877, 3,    236.652,   89.6,    0.9877
"LONDIYAR_WADEMBUS1", 0.415, 1,    236.097,  -30.5,   0.98538, 2,    236.097, -150.5,   0.98538, 3,    236.097,   89.5,   0.98538
"3_WAY_TALAULIMBUS1", 0.415, 1,     238.75,  -30.1,   0.99645, 2,     238.75, -150.1,   0.99645, 3,     238.75,   89.9,   0.99645
"NEW_TALAULIMBUS1", 0.415, 1,    236.407,  -30.4,   0.98667, 2,    236.407, -150.4,   0.98667, 3,    236.407,   89.6,   0.98667
"WADIBUS1", 0.415, 1,    237.327,  -30.3,   0.99051, 2,    237.327, -150.3,   0.99051, 3,    237.327,   89.7,   0.99051
"TALAULIMBUS1", 0.415, 1,    236.769,  -30.3,   0.98818, 2,    236.769, -150.3,   0.98818, 3,    236.769,   89.7,   0.98818
"MAHALAKSHMI_NAGARBUS1", 0.415, 1,    236.195,  -30.4,   0.98579, 2,    236.195, -150.4,   0.98579, 3,    236.195,   89.6,   0.98579
"PAUNWADABUS1", 0.415, 1,    237.183,  -30.3,   0.98991, 2,    237.183, -150.3,   0.98991, 3,    237.183,   89.7,   0.98991
"3_WAY_DON_KHAMBBUS1", 0.415, 1,    238.741,  -30.1,   0.99641, 2,    238.741, -150.1,   0.99641, 3,    238.741,   89.9,   0.99641
"KAVLE_MATHBUS1", 0.415, 1,    236.578,  -30.4,   0.98738, 2,    236.578, -150.4,   0.98738, 3,    236.578,   89.6,   0.98738
"SHANTADURGA_OLDBUS1", 0.415, 1,     236.97,  -30.3,   0.98902, 2,     236.97, -150.3,   0.98902, 3,     236.97,   89.7,   0.98902
"3_WAY_SHANTADURGABUS1", 0.415, 1,    238.761,  -30.1,    0.9965, 2,    238.761, -150.1,    0.9965, 3,    238.761,   89.9,    0.9965
"SANATAN_1BUS1", 0.415, 1,    237.153,  -30.3,   0.98978, 2,    237.153, -150.3,   0.98978, 3,    237.153,   89.7,   0.98978
"SANATAN_2BUS1", 0.415, 1,    237.601,  -30.2,   0.99165, 2,    237.601, -150.2,   0.99165, 3,    237.601,   89.8,   0.99165
"RAMNATHI_DEVASTHANBUS1", 0.415, 1,    236.551,  -30.4,   0.98727, 2,    236.551, -150.4,   0.98727, 3,    236.551,   89.6,   0.98727
"RAMNATHIBUS1", 0.415, 1,     236.97,  -30.3,   0.98902, 2,     236.97, -150.3,   0.98902, 3,     236.97,   89.7,   0.98902
"3_WAY_RAMNATHIBUS1", 0.415, 1,    238.866,  -30.0,   0.99694, 2,    238.866, -150.0,   0.99694, 3,    238.866,   90.0,   0.99694
"RPRS_SCHOOLBUS1", 0.415, 1,    238.157,  -30.2,   0.99398, 2,    238.157, -150.2,   0.99398, 3,    238.157,   89.8,   0.99398
"TOLULEMBUS1", 0.415, 1,    236.496,  -30.4,   0.98704, 2,    236.496, -150.4,   0.98704, 3,    236.496,   89.6,   0.98704
"KHARWADABUS1", 0.415, 1,    237.023,  -30.3,   0.98924, 2,    237.023, -150.3,   0.98924, 3,    237.023,   89.7,   0.98924
"SHANTADURGA_NEWBUS1", 0.415, 1,    237.044,  -30.3,   0.98933, 2,    237.044, -150.3,   0.98933, 3,    237.044,   89.7,   0.98933
"GALSHIREBUS1", 0.415, 1,    236.472,  -30.4,   0.98694, 2,    236.472, -150.4,   0.98694, 3,    236.472,   89.6,   0.98694
"3_WAY_GALSHIREBUS1", 0.415, 1,    238.732,  -30.1,   0.99638, 2,    238.732, -150.1,   0.99638, 3,    238.732,   89.9,   0.99638
"3_WAY_HARISH_BARBUS1", 0.415, 1,    238.726,  -30.1,   0.99635, 2,    238.726, -150.1,   0.99635, 3,    238.726,   89.9,   0.99635
"RAJENDRA_TALAKBUS1", 0.415, 1,    238.263,  -30.1,   0.99442, 2,    238.263, -150.1,   0.99442, 3,    238.263,   89.9,   0.99442
"RITESH_DEVELOPERSBUS1", 0.415, 1,        238,  -30.2,   0.99332, 2,        238, -150.2,   0.99332, 3,        238,   89.8,   0.99332
"VENKATESH_LEELABUS1", 0.415, 1,    236.776,  -30.3,   0.98821, 2,    236.776, -150.3,   0.98821, 3,    236.776,   89.7,   0.98821
"PERIGOLBUS1", 0.415, 1,    237.055,  -30.3,   0.98938, 2,    237.055, -150.3,   0.98938, 3,    237.055,   89.7,   0.98938
"MANMOHAN_SINGHBUS1", 0.415, 1,    236.301,  -30.4,   0.98623, 2,    236.301, -150.4,   0.98623, 3,    236.301,   89.6,   0.98623
"DHUMREBUS1", 0.415, 1,    236.621,  -30.4,   0.98756, 2,    236.621, -150.4,   0.98756, 3,    236.621,   89.6,   0.98756
"3_WAY_ROYAL_ENFIELDBUS1", 0.415, 1,    238.716,  -30.1,   0.99631, 2,    238.716, -150.1,   0.99631, 3,    238.716,   89.9,   0.99631
"SHASHIKALA_PAIBUS1", 0.415, 1,     236.89,  -30.3,   0.98869, 2,     236.89, -150.3,   0.98869, 3,     236.89,   89.7,   0.98869
"KAPILESHWARIBUS1", 0.415, 1,     237.41,  -30.3,   0.99086, 2,     237.41, -150.3,   0.99086, 3,     237.41,   89.7,   0.99086
"3_WAY_RATHAMALBUS1", 0.415, 1,    238.731,  -30.1,   0.99637, 2,    238.731, -150.1,   0.99637, 3,    238.731,   89.9,   0.99637
"MATRUCHAYABUS1", 0.415, 1,    236.731,  -30.3,   0.98803, 2,    236.731, -150.3,   0.98803, 3,    236.731,   89.7,   0.98803
"SHANTINAGAR_INTERLINKBUS1", 0.415, 1,    236.214,  -30.4,   0.98586, 2,    236.214, -150.4,   0.98586, 3,    236.214,   89.6,   0.98586
"3_WAY_SHANTINAGARBUS1", 11, 1,          0,    0.0,         0, 2,          0,    0.0,         0, 3,          0,    0.0,         0
"VAMNESHWARBUS1", 11, 1,          0,    0.0,         0, 2,          0,    0.0,         0, 3,          0,    0.0,         0
"GOLDEN_PROPERTIESBUS1", 11, 1,          0,    0.0,         0, 2,          0,    0.0,         0, 3,          0,    0.0,         0
"RITESHBUS1", 11, 1,          0,    0.0,         0, 2,          0,    0.0,         0, 3,          0,    0.0,         0
"SNEHMANDIR_LV", 0.415, 1,    237.398,  -30.4,   0.99081, 2,    237.398, -150.4,   0.99081, 3,    237.398,   89.6,   0.99081
"RAINGUINIM_LV", 0.415, 1,    237.439,  -30.5,   0.99098, 2,    237.439, -150.5,   0.99098, 3,    237.439,   89.5,   0.99098
"BANDORAP_LV", 0.415, 1,    238.475,  -30.2,    0.9953, 2,    238.475, -150.2,    0.9953, 3,    238.475,   89.8,    0.9953
"KASHIMATHG_LV", 0.415, 1,    237.676,  -30.4,   0.99197, 2,    237.676, -150.4,   0.99197, 3,    237.676,   89.6,   0.99197
"NAGESHIT_LV", 0.415, 1,    237.597,  -30.4,   0.99164, 2,    237.597, -150.4,   0.99164, 3,    237.597,   89.6,   0.99164
"DHONSHI_LV", 0.415, 1,    237.208,  -30.5,   0.99001, 2,    237.208, -150.5,   0.99001, 3,    237.208,   89.5,   0.99001
"AGRASHALA_LV", 0.415, 1,    237.804,  -30.4,    0.9925, 2,    237.804, -150.4,    0.9925, 3,    237.804,   89.6,    0.9925
"HINDUJAN_LV", 0.415, 1,    237.237,  -30.5,   0.99014, 2,    237.237, -150.5,   0.99014, 3,    237.237,   89.5,   0.99014
"VAGDOR_LV", 0.415, 1,    237.356,  -30.5,   0.99063, 2,    237.356, -150.5,   0.99063, 3,    237.356,   89.5,   0.99063
"MAHALAXMI_LV", 0.415, 1,    237.039,  -30.6,   0.98931, 2,    237.039, -150.6,   0.98931, 3,    237.039,   89.4,   0.98931
"PEARL_LV", 0.415, 1,    237.806,  -30.4,   0.99251, 2,    237.806, -150.4,   0.99251, 3,    237.806,   89.6,   0.99251
"KUNAL_LV", 0.415, 1,    237.696,  -30.4,   0.99205, 2,    237.696, -150.4,   0.99205, 3,    237.696,   89.6,   0.99205
"SHAMRAO_LV", 0.415, 1,    238.636,  -30.2,   0.99598, 2,    238.636, -150.2,   0.99598, 3,    238.636,   89.8,   0.99598
"MOGRU_LV", 0.415, 1,    237.959,  -30.4,   0.99315, 2,    237.959, -150.4,   0.99315, 3,    237.959,   89.6,   0.99315
"KONARGAUNEM_LV", 0.415, 1,    238.057,  -30.4,   0.99356, 2,    238.057, -150.4,   0.99356, 3,    238.057,   89.6,   0.99356
"MGSCHOOL_LV", 0.415, 1,      238.9,  -30.1,   0.99708, 2,      238.9, -150.1,   0.99708, 3,      238.9,   89.9,   0.99708
"CHAFERAN_LV", 0.415, 1,    237.746,  -30.5,   0.99226, 2,    237.746, -150.5,   0.99226, 3,    237.746,   89.5,   0.99226
"SHIGUMOMAND_LV", 0.415, 1,    237.562,  -30.5,   0.99149, 2,    237.562, -150.5,   0.99149, 3,    237.562,   89.5,   0.99149
